instances/data_GOC/Phase_0_Infeas179/scenario_4/powersystem.raw
0,100.000000
powersystem.raw / File written by to_psse.gms
5 / 24 / 2017
2,2,0.000000,1,1,1,1,0.979469,-26.176380,1.107700,0.897700,1.107700,0.897700
3,3,0.000000,1,1,1,1,0.977437,-16.962140,1.107700,0.897700,1.107700,0.897700
4,4,0.000000,2,1,1,1,1.040000,-19.660770,1.107700,0.897700,1.107700,0.897700
5,5,0.000000,1,1,1,1,0.975175,16.273620,1.107700,0.897700,1.107700,0.897700
6,6,0.000000,2,1,1,1,0.950000,23.551660,1.107700,0.897700,1.107700,0.897700
7,7,0.000000,1,1,1,1,1.068141,-7.905650,1.107700,0.897700,1.107700,0.897700
8,8,0.000000,1,1,1,1,1.009142,-4.689210,1.107700,0.897700,1.107700,0.897700
9,9,0.000000,2,1,1,1,1.000000,2.228220,1.107700,0.897700,1.107700,0.897700
10,10,0.000000,1,1,1,1,1.007263,-5.232610,1.107700,0.897700,1.107700,0.897700
11,11,0.000000,2,1,1,1,1.000000,33.727950,1.107700,0.897700,1.107700,0.897700
12,12,0.000000,1,2,1,1,1.072050,-23.936820,1.107700,0.897700,1.107700,0.897700
13,13,0.000000,2,2,1,1,1.000000,-17.812910,1.107700,0.897700,1.107700,0.897700
14,14,0.000000,1,2,1,1,1.067346,-24.856530,1.107700,0.897700,1.107700,0.897700
15,15,0.000000,2,2,1,1,0.960000,-21.715580,1.107700,0.897700,1.107700,0.897700
16,16,0.000000,1,2,1,1,1.048555,-29.642340,1.107700,0.897700,1.107700,0.897700
17,17,0.000000,1,1,1,1,1.035591,-3.876240,1.107700,0.897700,1.107700,0.897700
18,18,0.000000,2,1,1,1,1.000000,-0.888920,1.107700,0.897700,1.107700,0.897700
19,19,0.000000,1,2,1,1,1.055927,-29.592750,1.107700,0.897700,1.107700,0.897700
20,20,0.000000,1,2,1,1,1.070245,-22.851740,1.107700,0.897700,1.107700,0.897700
21,21,0.000000,1,2,1,1,1.060421,-25.953900,1.107700,0.897700,1.107700,0.897700
22,22,0.000000,1,2,1,1,1.046925,-22.122530,1.107700,0.897700,1.107700,0.897700
23,23,0.000000,1,2,1,1,1.025636,-31.460320,1.107700,0.897700,1.107700,0.897700
24,24,0.000000,1,2,1,1,1.055713,-23.392370,1.107700,0.897700,1.107700,0.897700
25,25,0.000000,1,2,1,1,1.041159,-31.084910,1.107700,0.897700,1.107700,0.897700
26,26,0.000000,1,2,1,1,1.051311,-15.551710,1.107700,0.897700,1.107700,0.897700
27,27,0.000000,1,2,1,1,1.046716,-42.398300,1.107700,0.897700,1.107700,0.897700
28,28,0.000000,1,1,1,1,1.065843,-5.781090,1.107700,0.897700,1.107700,0.897700
29,29,0.000000,1,1,1,1,1.069329,-27.983880,1.107700,0.897700,1.107700,0.897700
30,30,0.000000,2,1,1,1,1.000000,24.735740,1.107700,0.897700,1.107700,0.897700
31,31,0.000000,1,1,1,1,1.036338,20.945200,1.107700,0.897700,1.107700,0.897700
32,32,0.000000,1,1,1,1,1.078611,49.234090,1.107700,0.897700,1.107700,0.897700
33,33,0.000000,1,1,1,1,0.978546,53.822900,1.107700,0.897700,1.107700,0.897700
34,34,0.000000,1,1,1,1,1.001134,62.871670,1.107700,0.897700,1.107700,0.897700
35,35,0.000000,2,1,1,1,1.020000,67.792780,1.107700,0.897700,1.107700,0.897700
36,36,0.000000,2,1,1,1,1.009000,2.460420,1.107700,0.897700,1.107700,0.897700
37,37,0.000000,1,2,1,1,1.060315,-42.157010,1.107700,0.897700,1.107700,0.897700
38,38,0.000000,1,2,1,1,1.080898,-46.227240,1.107700,0.897700,1.107700,0.897700
39,39,0.000000,1,2,1,1,1.031950,-47.291740,1.107700,0.897700,1.107700,0.897700
40,40,0.000000,2,2,1,1,1.020000,-45.981920,1.107700,0.897700,1.107700,0.897700
41,41,0.000000,1,2,1,1,1.023374,-50.924000,1.107700,0.897700,1.107700,0.897700
42,42,0.000000,1,2,1,1,1.031289,-50.653620,1.107700,0.897700,1.107700,0.897700
43,43,0.000000,2,2,1,1,1.000000,-47.350420,1.107700,0.897700,1.107700,0.897700
44,44,0.000000,1,1,1,1,1.052572,-4.367700,1.107700,0.897700,1.107700,0.897700
45,45,0.000000,2,1,1,1,1.050000,0.279500,1.107700,0.897700,1.107700,0.897700
46,46,0.000000,1,2,1,1,1.034754,-47.630590,1.107700,0.897700,1.107700,0.897700
47,47,0.000000,2,2,1,1,1.020000,-47.269870,1.107700,0.897700,1.107700,0.897700
48,48,0.000000,1,2,1,1,1.034024,-47.840340,1.107700,0.897700,1.107700,0.897700
49,49,0.000000,1,2,1,1,1.072123,-45.482750,1.107700,0.897700,1.107700,0.897700
50,50,0.000000,1,2,1,1,1.023616,-51.845480,1.107700,0.897700,1.107700,0.897700
51,51,0.000000,1,2,1,1,1.032558,-51.901980,1.107700,0.897700,1.107700,0.897700
52,52,0.000000,1,2,1,1,1.036634,-50.718370,1.107700,0.897700,1.107700,0.897700
53,53,0.000000,1,2,1,1,1.036634,-50.718370,1.107700,0.897700,1.107700,0.897700
54,54,0.000000,1,2,1,1,1.027275,-52.110210,1.107700,0.897700,1.107700,0.897700
55,55,0.000000,1,2,1,1,1.025161,-50.058390,1.107700,0.897700,1.107700,0.897700
56,56,0.000000,1,2,1,1,1.043038,-47.664880,1.107700,0.897700,1.107700,0.897700
57,57,0.000000,1,2,1,1,1.024841,-51.880570,1.107700,0.897700,1.107700,0.897700
58,58,0.000000,1,2,1,1,1.023942,-51.175670,1.107700,0.897700,1.107700,0.897700
59,59,0.000000,1,2,1,1,1.031118,-48.915000,1.107700,0.897700,1.107700,0.897700
60,60,0.000000,1,2,1,1,1.038315,-47.150460,1.107700,0.897700,1.107700,0.897700
61,61,0.000000,1,2,1,1,1.020730,-48.256870,1.107700,0.897700,1.107700,0.897700
62,62,0.000000,1,2,1,1,1.029297,-49.032040,1.107700,0.897700,1.107700,0.897700
63,63,0.000000,1,2,1,1,1.052086,-44.494140,1.107700,0.897700,1.107700,0.897700
64,64,0.000000,1,2,1,1,1.058655,-42.476710,1.107700,0.897700,1.107700,0.897700
65,65,0.000000,2,1,1,1,1.000000,56.592950,1.107700,0.897700,1.107700,0.897700
66,66,0.000000,1,1,1,1,1.049279,48.200560,1.107700,0.897700,1.107700,0.897700
67,67,0.000000,1,1,1,1,1.068629,-16.933060,1.107700,0.897700,1.107700,0.897700
68,68,0.000000,1,1,1,1,1.065911,-14.570370,1.107700,0.897700,1.107700,0.897700
69,69,0.000000,1,1,1,1,1.089189,-13.310250,1.107700,0.897700,1.107700,0.897700
70,70,0.000000,2,1,1,1,1.055000,-7.940510,1.107700,0.897700,1.107700,0.897700
71,71,0.000000,1,1,1,1,1.061583,-15.076530,1.107700,0.897700,1.107700,0.897700
72,72,0.000000,1,1,1,1,1.089639,-13.418340,1.107700,0.897700,1.107700,0.897700
73,73,0.000000,1,1,1,1,1.078387,-1.360490,1.107700,0.897700,1.107700,0.897700
74,74,0.000000,1,1,1,1,1.069996,0.163260,1.107700,0.897700,1.107700,0.897700
75,75,0.000000,1,1,1,1,1.037046,-12.159540,1.107700,0.897700,1.107700,0.897700
76,76,0.000000,1,1,1,1,1.082830,-11.123520,1.107700,0.897700,1.107700,0.897700
77,77,0.000000,3,1,1,1,1.000000,0.000000,1.107700,0.897700,1.107700,0.897700
78,78,0.000000,1,1,1,1,1.049460,0.224490,1.107700,0.897700,1.107700,0.897700
79,79,0.000000,2,1,1,1,1.000000,26.585470,1.107700,0.897700,1.107700,0.897700
80,80,0.000000,1,1,1,1,1.049927,12.106890,1.107700,0.897700,1.107700,0.897700
81,81,0.000000,1,1,1,1,1.052949,-19.552130,1.107700,0.897700,1.107700,0.897700
82,82,0.000000,1,1,1,1,1.067396,-17.148430,1.107700,0.897700,1.107700,0.897700
83,83,0.000000,1,1,1,1,1.054325,-23.346460,1.107700,0.897700,1.107700,0.897700
84,84,0.000000,1,1,1,1,1.061944,-5.199100,1.107700,0.897700,1.107700,0.897700
85,85,0.000000,1,1,1,1,0.998447,-1.571780,1.107700,0.897700,1.107700,0.897700
86,86,0.000000,1,1,1,1,1.058179,-18.235620,1.107700,0.897700,1.107700,0.897700
87,87,0.000000,1,1,1,1,1.065325,-18.748290,1.107700,0.897700,1.107700,0.897700
88,88,0.000000,1,1,1,1,1.071428,-16.016250,1.107700,0.897700,1.107700,0.897700
89,89,0.000000,1,1,1,1,1.050612,-14.138780,1.107700,0.897700,1.107700,0.897700
90,90,0.000000,1,1,1,1,1.060879,-19.806660,1.107700,0.897700,1.107700,0.897700
91,91,0.000000,1,1,1,1,1.079971,-21.796500,1.107700,0.897700,1.107700,0.897700
92,92,0.000000,1,1,1,1,1.069427,-17.225710,1.107700,0.897700,1.107700,0.897700
93,93,0.000000,1,1,1,1,1.068597,-22.449710,1.107700,0.897700,1.107700,0.897700
94,94,0.000000,1,1,1,1,1.071696,-17.861750,1.107700,0.897700,1.107700,0.897700
95,95,0.000000,1,1,1,1,1.079256,-22.056870,1.107700,0.897700,1.107700,0.897700
96,96,0.000000,1,1,1,1,1.069164,-17.225500,1.107700,0.897700,1.107700,0.897700
97,97,0.000000,1,1,1,1,1.067603,-22.746370,1.107700,0.897700,1.107700,0.897700
98,98,0.000000,1,1,1,1,1.071035,-17.895040,1.107700,0.897700,1.107700,0.897700
99,99,0.000000,1,1,1,1,0.972833,8.042900,1.107700,0.897700,1.107700,0.897700
100,100,0.000000,1,3,1,1,1.130963,-34.975250,1.107700,0.897700,1.107700,0.897700
101,101,0.000000,1,3,1,1,1.136126,-30.489370,1.107700,0.897700,1.107700,0.897700
102,102,0.000000,1,2,1,1,1.052974,-46.127530,1.107700,0.897700,1.107700,0.897700
103,103,0.000000,2,2,1,1,0.980000,-42.325310,1.107700,0.897700,1.107700,0.897700
104,104,0.000000,1,2,1,1,1.047066,-47.683420,1.107700,0.897700,1.107700,0.897700
105,105,0.000000,1,3,1,1,1.140901,-34.199740,1.107700,0.897700,1.107700,0.897700
106,106,0.000000,1,3,1,1,1.140154,-34.584740,1.107700,0.897700,1.107700,0.897700
107,107,0.000000,1,2,1,1,1.049264,-49.528780,1.107700,0.897700,1.107700,0.897700
108,108,0.000000,1,2,1,1,1.059340,-48.606610,1.107700,0.897700,1.107700,0.897700
109,109,0.000000,1,2,1,1,1.167049,-51.444510,1.107700,0.897700,1.107700,0.897700
110,110,0.000000,1,2,1,1,1.046385,-49.793570,1.107700,0.897700,1.107700,0.897700
111,111,0.000000,1,3,1,1,1.037269,-31.069740,1.107700,0.897700,1.107700,0.897700
112,112,0.000000,2,3,1,1,1.020000,-15.080150,1.107700,0.897700,1.107700,0.897700
113,113,0.000000,1,3,1,1,1.123849,-25.141230,1.107700,0.897700,1.107700,0.897700
114,114,0.000000,1,3,1,1,1.034534,-27.932610,1.107700,0.897700,1.107700,0.897700
115,115,0.000000,1,3,1,1,1.013411,-32.070980,1.107700,0.897700,1.107700,0.897700
116,116,0.000000,2,3,1,1,1.050000,-35.686160,1.107700,0.897700,1.107700,0.897700
117,117,0.000000,1,3,1,1,1.127435,-39.634370,1.107700,0.897700,1.107700,0.897700
118,118,0.000000,2,3,1,1,1.000000,-30.782860,1.107700,0.897700,1.107700,0.897700
119,119,0.000000,1,3,1,1,0.998151,-38.994960,1.107700,0.897700,1.107700,0.897700
120,120,0.000000,1,3,1,1,1.050252,-24.094370,1.107700,0.897700,1.107700,0.897700
121,121,0.000000,1,3,1,1,1.011417,-38.030640,1.107700,0.897700,1.107700,0.897700
122,122,0.000000,1,3,1,1,1.027852,-30.790170,1.107700,0.897700,1.107700,0.897700
123,123,0.000000,1,3,1,1,0.980984,-46.600300,1.107700,0.897700,1.107700,0.897700
124,124,0.000000,1,3,1,1,1.040535,-22.028230,1.107700,0.897700,1.107700,0.897700
125,125,0.000000,1,3,1,1,1.010781,-36.145690,1.107700,0.897700,1.107700,0.897700
126,126,0.000000,1,3,1,1,1.040535,-22.028230,1.107700,0.897700,1.107700,0.897700
127,127,0.000000,1,3,1,1,1.010781,-36.145690,1.107700,0.897700,1.107700,0.897700
128,128,0.000000,1,3,1,1,1.012566,-25.807690,1.107700,0.897700,1.107700,0.897700
129,129,0.000000,1,3,1,1,0.998820,-45.341780,1.107700,0.897700,1.107700,0.897700
130,130,0.000000,1,3,1,1,1.017542,-27.318350,1.107700,0.897700,1.107700,0.897700
131,131,0.000000,1,3,1,1,0.998759,-41.422990,1.107700,0.897700,1.107700,0.897700
132,132,0.000000,1,2,1,1,0.979985,-36.942980,1.107700,0.897700,1.107700,0.897700
133,133,0.000000,1,2,1,1,1.070465,-51.702620,1.107700,0.897700,1.107700,0.897700
134,134,0.000000,1,2,1,1,0.971405,-35.060110,1.107700,0.897700,1.107700,0.897700
135,135,0.000000,1,2,1,1,1.068068,-49.993810,1.107700,0.897700,1.107700,0.897700
136,136,0.000000,1,2,1,1,1.035387,-43.522860,1.107700,0.897700,1.107700,0.897700
137,137,0.000000,1,2,1,1,1.010095,-52.761490,1.107700,0.897700,1.107700,0.897700
138,138,0.000000,2,2,1,1,1.020000,-25.974860,1.107700,0.897700,1.107700,0.897700
139,139,0.000000,1,2,1,1,1.051216,-33.096400,1.107700,0.897700,1.107700,0.897700
140,140,0.000000,2,2,1,1,1.020000,-49.626470,1.107700,0.897700,1.107700,0.897700
141,141,0.000000,1,2,1,1,1.011858,-55.775920,1.107700,0.897700,1.107700,0.897700
142,142,0.000000,1,2,1,1,1.054984,-46.090910,1.107700,0.897700,1.107700,0.897700
143,143,0.000000,1,2,1,1,1.007051,-55.061080,1.107700,0.897700,1.107700,0.897700
144,144,0.000000,2,2,1,1,1.050000,-45.443060,1.107700,0.897700,1.107700,0.897700
145,145,0.000000,1,2,1,1,1.040868,-49.680510,1.107700,0.897700,1.107700,0.897700
146,146,0.000000,1,2,1,1,1.038208,-50.126370,1.107700,0.897700,1.107700,0.897700
147,147,0.000000,1,2,1,1,1.069992,-29.362000,1.107700,0.897700,1.107700,0.897700
148,148,0.000000,2,2,1,1,1.050000,-21.041460,1.107700,0.897700,1.107700,0.897700
149,149,0.000000,2,2,1,1,1.010000,-39.601050,1.107700,0.897700,1.107700,0.897700
150,150,0.000000,1,2,1,1,1.006003,-51.683440,1.107700,0.897700,1.107700,0.897700
151,151,0.000000,1,2,1,1,1.041284,-50.079120,1.107700,0.897700,1.107700,0.897700
152,152,0.000000,1,2,1,1,1.036941,-47.762360,1.107700,0.897700,1.107700,0.897700
153,153,0.000000,1,2,1,1,1.061183,-48.946600,1.107700,0.897700,1.107700,0.897700
154,154,0.000000,1,2,1,1,0.994892,-51.634020,1.107700,0.897700,1.107700,0.897700
155,155,0.000000,1,1,1,1,1.042885,-2.417600,1.107700,0.897700,1.107700,0.897700
156,156,0.000000,1,1,1,1,1.044639,-3.394330,1.107700,0.897700,1.107700,0.897700
157,157,0.000000,1,1,1,1,1.046244,-3.959950,1.107700,0.897700,1.107700,0.897700
158,158,0.000000,1,1,1,1,1.037055,4.888170,1.107700,0.897700,1.107700,0.897700
159,159,0.000000,2,1,1,1,1.050000,9.603590,1.107700,0.897700,1.107700,0.897700
160,160,0.000000,1,1,1,1,1.055964,-2.008850,1.107700,0.897700,1.107700,0.897700
161,161,0.000000,1,1,1,1,1.044526,0.612860,1.107700,0.897700,1.107700,0.897700
162,162,0.000000,2,1,1,1,1.000000,3.412580,1.107700,0.897700,1.107700,0.897700
163,163,0.000000,1,1,1,1,1.036789,-2.443120,1.107700,0.897700,1.107700,0.897700
164,164,0.000000,1,1,1,1,1.040440,-1.404490,1.107700,0.897700,1.107700,0.897700
165,165,0.000000,1,1,1,1,1.035139,-1.093550,1.107700,0.897700,1.107700,0.897700
166,166,0.000000,1,1,1,1,1.051897,-0.547080,1.107700,0.897700,1.107700,0.897700
167,167,0.000000,1,1,1,1,1.039109,-3.422190,1.107700,0.897700,1.107700,0.897700
168,168,0.000000,1,3,1,1,1.061051,-19.769790,1.107700,0.897700,1.107700,0.897700
169,169,0.000000,1,3,1,1,1.025564,-31.668920,1.107700,0.897700,1.107700,0.897700
170,170,0.000000,1,3,1,1,1.061788,-19.014650,1.107700,0.897700,1.107700,0.897700
171,171,0.000000,1,3,1,1,1.027016,-31.698160,1.107700,0.897700,1.107700,0.897700
172,172,0.000000,1,3,1,1,1.056958,-17.440450,1.107700,0.897700,1.107700,0.897700
173,173,0.000000,1,3,1,1,1.031938,-37.151130,1.107700,0.897700,1.107700,0.897700
174,174,0.000000,1,2,1,1,1.046511,-48.240000,1.107700,0.897700,1.107700,0.897700
175,175,0.000000,1,2,1,1,1.054577,-49.309420,1.107700,0.897700,1.107700,0.897700
176,176,0.000000,1,2,1,1,1.046245,-48.234860,1.107700,0.897700,1.107700,0.897700
177,177,0.000000,1,2,1,1,1.054703,-49.310840,1.107700,0.897700,1.107700,0.897700
178,178,0.000000,1,2,1,1,1.045976,-48.222550,1.107700,0.897700,1.107700,0.897700
179,179,0.000000,1,2,1,1,1.057051,-49.287060,1.107700,0.897700,1.107700,0.897700
180,180,0.000000,1,1,1,1,0.984363,-6.686900,1.107700,0.897700,1.107700,0.897700
0 / END OF BUS DATA, BEGIN LOAD DATA
2,1,1,1,1,811.9411959487479,-53.946809662505984,0.0,0.0,0.0,0.0,1,1,0
3,1,1,1,1,0.0,0.0,0.0,0.0,0.0,0.0,1,1,0
4,1,1,1,1,51.271870820783086,0.0,0.0,0.0,0.0,0.0,1,1,0
5,1,1,1,1,1216.2207556073554,-117.39751217109152,0.0,0.0,0.0,0.0,1,1,0
6,1,1,1,1,48.80093813640997,0.0,0.0,0.0,0.0,0.0,1,1,0
7,1,1,1,1,0.0,0.0,0.0,0.0,0.0,0.0,1,1,0
8,1,1,1,1,111.03959060483612,-56.30462676212192,0.0,0.0,0.0,0.0,1,1,0
9,1,1,1,1,45.225339678581804,0.0,0.0,0.0,0.0,0.0,1,1,0
10,1,1,1,1,68.26164721349254,21.999213844612242,0.0,0.0,0.0,0.0,1,1,0
11,1,1,1,1,52.120618866756566,0.0,0.0,0.0,0.0,0.0,1,1,0
12,1,1,2,1,44.885442406637594,65.5155797530897,0.0,0.0,0.0,0.0,1,1,0
13,1,1,2,1,51.330077911261476,0.0,0.0,0.0,0.0,0.0,1,1,0
14,1,1,2,1,0.0,0.0,0.0,0.0,0.0,0.0,1,1,0
15,1,1,2,1,48.80130435805768,0.0,0.0,0.0,0.0,0.0,1,1,0
16,1,1,2,1,430.2529904178065,196.5386213054415,0.0,0.0,0.0,0.0,1,1,0
17,1,1,1,1,456.253933117725,5.162940073758364,0.0,0.0,0.0,0.0,1,1,0
18,1,1,1,1,54.57340692169965,0.0,0.0,0.0,0.0,0.0,1,1,0
19,1,1,2,1,297.8144698293414,-68.32497473917903,0.0,0.0,0.0,0.0,1,1,0
20,1,1,2,1,0.0,0.0,0.0,0.0,0.0,0.0,1,1,0
21,1,1,2,1,0.0,0.0,0.0,0.0,0.0,0.0,1,1,0
22,1,1,2,1,0.0,0.0,0.0,0.0,0.0,0.0,1,1,0
23,1,1,2,1,0.0,0.0,0.0,0.0,0.0,0.0,1,1,0
24,1,1,2,1,0.0,0.0,0.0,0.0,0.0,0.0,1,1,0
25,1,1,2,1,0.0,0.0,0.0,0.0,0.0,0.0,1,1,0
26,1,1,2,1,0.0,0.0,0.0,0.0,0.0,0.0,1,1,0
27,1,1,2,1,0.0,0.0,0.0,0.0,0.0,0.0,1,1,0
28,1,1,1,1,0.0,0.0,0.0,0.0,0.0,0.0,1,1,0
29,1,1,1,1,0.0,0.0,0.0,0.0,0.0,0.0,1,1,0
30,1,1,1,1,46.17379226023331,0.0,0.0,0.0,0.0,0.0,1,1,0
31,1,1,1,1,2273.294149097055,965.9763113595545,0.0,0.0,0.0,0.0,1,1,0
32,1,1,1,1,0.0,0.0,0.0,0.0,0.0,0.0,1,1,0
33,1,1,1,1,0.0,0.0,0.0,0.0,0.0,0.0,1,1,0
34,1,1,1,1,1637.7505174465477,654.2757974751295,0.0,0.0,0.0,0.0,1,1,0
35,1,1,1,1,45.95702617196366,0.0,0.0,0.0,0.0,0.0,1,1,0
36,1,1,1,1,54.812892293557525,0.0,0.0,0.0,0.0,0.0,1,1,0
37,1,1,2,1,-846.6817953151651,940.2618560964709,0.0,0.0,0.0,0.0,1,1,0
38,1,1,2,1,0.0,0.0,0.0,0.0,0.0,0.0,1,1,0
39,1,1,2,1,0.0,0.0,0.0,0.0,0.0,0.0,1,1,0
40,1,1,2,1,49.910769348498434,0.0,0.0,0.0,0.0,0.0,1,1,0
41,1,1,2,1,71.08661144273356,24.442778066592293,0.0,0.0,0.0,0.0,1,1,0
42,1,1,2,1,0.0,0.0,0.0,0.0,0.0,0.0,1,1,0
43,1,1,2,1,51.583086811006076,0.0,0.0,0.0,0.0,0.0,1,1,0
44,1,1,1,1,1088.6320632001386,953.508007544931,0.0,0.0,0.0,0.0,1,1,0
45,1,1,1,1,54.55436869291589,0.0,0.0,0.0,0.0,0.0,1,1,0
46,1,1,2,1,-34.246601608432826,-17.063348213676363,0.0,0.0,0.0,0.0,1,1,0
47,1,1,2,1,47.9501641029492,0.0,0.0,0.0,0.0,0.0,1,1,0
48,1,1,2,1,60.60232844795101,26.368565930752087,0.0,0.0,0.0,0.0,1,1,0
49,1,1,2,1,0.0,0.0,0.0,0.0,0.0,0.0,1,1,0
50,1,1,2,1,155.8850420638919,61.42459877487273,0.0,0.0,0.0,0.0,1,1,0
51,1,1,2,1,128.1039006151445,-67.13493656627834,0.0,0.0,0.0,0.0,1,1,0
52,1,1,2,1,0.0,0.0,0.0,0.0,0.0,0.0,1,1,0
53,1,1,2,1,0.0,0.0,0.0,0.0,0.0,0.0,1,1,0
54,1,1,2,1,75.21813236754389,30.569192048162222,0.0,0.0,0.0,0.0,1,1,0
55,1,1,2,1,413.2206814622367,137.68883289051243,0.0,0.0,0.0,0.0,1,1,0
56,1,1,2,1,0.0,0.0,0.0,0.0,0.0,0.0,1,1,0
57,1,1,2,1,55.15938394353725,26.096413547918203,0.0,0.0,0.0,0.0,1,1,0
58,1,1,2,1,54.64797360792291,24.24285891582258,0.0,0.0,0.0,0.0,1,1,0
59,1,1,2,1,486.06205436363354,-6.449703697850929,0.0,0.0,0.0,0.0,1,1,0
60,1,1,2,1,-1465.046384427394,1643.5713359091433,0.0,0.0,0.0,0.0,1,1,0
61,1,1,2,1,203.70304011339323,78.02106619543396,0.0,0.0,0.0,0.0,1,1,0
62,1,1,2,1,94.6722732063476,18.29793728925288,0.0,0.0,0.0,0.0,1,1,0
63,1,1,2,1,-68.70486895297654,30.78499309576117,0.0,0.0,0.0,0.0,1,1,0
64,1,1,2,1,0.0,0.0,0.0,0.0,0.0,0.0,1,1,0
65,1,1,1,1,54.05631162924692,0.0,0.0,0.0,0.0,0.0,1,1,0
66,1,1,1,1,856.5971537888981,274.116798969917,0.0,0.0,0.0,0.0,1,1,0
67,1,1,1,1,87.26542384549975,29.399973804538604,0.0,0.0,0.0,0.0,1,1,0
68,1,1,1,1,-32.32930356095312,174.34587290883064,0.0,0.0,0.0,0.0,1,1,0
69,1,1,1,1,-20.190249965637925,23.473408664017917,0.0,0.0,0.0,0.0,1,1,0
70,1,1,1,1,54.44231348345057,0.0,0.0,0.0,0.0,0.0,1,1,0
71,1,1,1,1,1497.4378027118046,1640.8700029505417,0.0,0.0,0.0,0.0,1,1,0
72,1,1,1,1,0.0,0.0,0.0,0.0,0.0,0.0,1,1,0
73,1,1,1,1,-731.7839402676327,-52.33364494983107,0.0,0.0,0.0,0.0,1,1,0
74,1,1,1,1,0.0,0.0,0.0,0.0,0.0,0.0,1,1,0
75,1,1,1,1,1388.785974461399,359.6686446138658,0.0,0.0,0.0,0.0,1,1,0
76,1,1,1,1,1481.2087040394545,1151.3635384244847,0.0,0.0,0.0,0.0,1,1,0
77,1,1,1,1,54.44788489490748,0.0,0.0,0.0,0.0,0.0,1,1,0
78,1,1,1,1,1665.8399803331122,508.481588237919,0.0,0.0,0.0,0.0,1,1,0
79,1,1,1,1,51.431158296763904,0.0,0.0,0.0,0.0,0.0,1,1,0
80,1,1,1,1,2618.905993294902,406.78732536733156,0.0,0.0,0.0,0.0,1,1,0
81,1,1,1,1,0.0,0.0,0.0,0.0,0.0,0.0,1,1,0
82,1,1,1,1,-31.16321518341545,-94.97622470841743,0.0,0.0,0.0,0.0,1,1,0
83,1,1,1,1,-160.48045667284168,-128.2640183372423,0.0,0.0,0.0,0.0,1,1,0
84,1,1,1,1,0.0,0.0,0.0,0.0,0.0,0.0,1,1,0
85,1,1,1,1,315.48457569791935,-404.32419477403164,0.0,0.0,0.0,0.0,1,1,0
86,1,1,1,1,0.0,0.0,0.0,0.0,0.0,0.0,1,1,0
87,1,1,1,1,0.0,0.0,0.0,0.0,0.0,0.0,1,1,0
88,1,1,1,1,0.0,0.0,0.0,0.0,0.0,0.0,1,1,0
89,1,1,1,1,0.0,0.0,0.0,0.0,0.0,0.0,1,1,0
90,1,1,1,1,0.0,0.0,0.0,0.0,0.0,0.0,1,1,0
91,1,1,1,1,0.0,0.0,0.0,0.0,0.0,0.0,1,1,0
92,1,1,1,1,0.0,0.0,0.0,0.0,0.0,0.0,1,1,0
93,1,1,1,1,0.0,0.0,0.0,0.0,0.0,0.0,1,1,0
94,1,1,1,1,0.0,0.0,0.0,0.0,0.0,0.0,1,1,0
95,1,1,1,1,0.0,0.0,0.0,0.0,0.0,0.0,1,1,0
96,1,1,1,1,0.0,0.0,0.0,0.0,0.0,0.0,1,1,0
97,1,1,1,1,0.0,0.0,0.0,0.0,0.0,0.0,1,1,0
98,1,1,1,1,0.0,0.0,0.0,0.0,0.0,0.0,1,1,0
99,1,1,1,1,0.0,0.0,0.0,0.0,0.0,0.0,1,1,0
100,1,1,3,1,-22.249865285323466,21.487114129588008,0.0,0.0,0.0,0.0,1,1,0
101,1,1,3,1,114.96808860780672,-81.1045097923372,0.0,0.0,0.0,0.0,1,1,0
102,1,1,2,1,26.70145377982408,26.123763759387657,0.0,0.0,0.0,0.0,1,1,0
103,1,1,2,1,47.8601494175382,0.0,0.0,0.0,0.0,0.0,1,1,0
104,1,1,2,1,156.49222015787382,-7.531600306238979,0.0,0.0,0.0,0.0,1,1,0
105,1,1,3,1,13.158666349190753,-0.09710884341038764,0.0,0.0,0.0,0.0,1,1,0
106,1,1,3,1,3.7013394240438937,0.0,0.0,0.0,0.0,0.0,1,1,0
107,1,1,2,1,127.06344322126824,15.352140536159279,0.0,0.0,0.0,0.0,1,1,0
108,1,1,2,1,28.84843035539613,-318.00922809983604,0.0,0.0,0.0,0.0,1,1,0
109,1,1,2,1,415.95556063681846,35.000454521374785,0.0,0.0,0.0,0.0,1,1,0
110,1,1,2,1,18.136798698455095,23.424370056553748,0.0,0.0,0.0,0.0,1,1,0
111,1,1,3,1,-86.23436593625229,55.63873423710466,0.0,0.0,0.0,0.0,1,1,0
112,1,1,3,1,53.4601829154417,0.0,0.0,0.0,0.0,0.0,1,1,0
113,1,1,3,1,72.18151536686347,0.0,0.0,0.0,0.0,0.0,1,1,0
114,1,1,3,1,0.0,0.0,0.0,0.0,0.0,0.0,1,1,0
115,1,1,3,1,-0.37700972605263816,116.149217538815,0.0,0.0,0.0,0.0,1,1,0
116,1,1,3,1,45.69420941406861,0.0,0.0,0.0,0.0,0.0,1,1,0
117,1,1,3,1,416.86823648940776,55.47343562169001,0.0,0.0,0.0,0.0,1,1,0
118,1,1,3,1,45.598474498838186,0.0,0.0,0.0,0.0,0.0,1,1,0
119,1,1,3,1,2686.7289528755705,3436.189597604098,0.0,0.0,0.0,0.0,1,1,0
120,1,1,3,1,0.0,0.0,0.0,0.0,0.0,0.0,1,1,0
121,1,1,3,1,0.0,0.0,0.0,0.0,0.0,0.0,1,1,0
122,1,1,3,1,0.0,0.0,0.0,0.0,0.0,0.0,1,1,0
123,1,1,3,1,0.0,0.0,0.0,0.0,0.0,0.0,1,1,0
124,1,1,3,1,0.0,0.0,0.0,0.0,0.0,0.0,1,1,0
125,1,1,3,1,0.0,0.0,0.0,0.0,0.0,0.0,1,1,0
126,1,1,3,1,0.0,0.0,0.0,0.0,0.0,0.0,1,1,0
127,1,1,3,1,0.0,0.0,0.0,0.0,0.0,0.0,1,1,0
128,1,1,3,1,0.0,0.0,0.0,0.0,0.0,0.0,1,1,0
129,1,1,3,1,0.0,0.0,0.0,0.0,0.0,0.0,1,1,0
130,1,1,3,1,0.0,0.0,0.0,0.0,0.0,0.0,1,1,0
131,1,1,3,1,0.0,0.0,0.0,0.0,0.0,0.0,1,1,0
132,1,1,2,1,0.0,0.0,0.0,0.0,0.0,0.0,1,1,0
133,1,1,2,1,0.0,0.0,0.0,0.0,0.0,0.0,1,1,0
134,1,1,2,1,0.0,0.0,0.0,0.0,0.0,0.0,1,1,0
135,1,1,2,1,0.0,0.0,0.0,0.0,0.0,0.0,1,1,0
136,1,1,2,1,431.4908936340362,19.461806066948924,0.0,0.0,0.0,0.0,1,1,0
137,1,1,2,1,93.1298998038983,18.276060116663576,0.0,0.0,0.0,0.0,1,1,0
138,1,1,2,1,54.43671934772283,0.0,0.0,0.0,0.0,0.0,1,1,0
139,1,1,2,1,409.10438679833896,-11.451465845033526,0.0,0.0,0.0,0.0,1,1,0
140,1,1,2,1,47.55644593387842,0.0,0.0,0.0,0.0,0.0,1,1,0
141,1,1,2,1,1537.386236025137,658.7859625099227,0.0,0.0,0.0,0.0,1,1,0
142,1,1,2,1,99.9536827708641,-27.931345496932042,0.0,0.0,0.0,0.0,1,1,0
143,1,1,2,1,186.2249686773727,67.18015327441972,0.0,0.0,0.0,0.0,1,1,0
144,1,1,2,1,46.27540122717619,0.0,0.0,0.0,0.0,0.0,1,1,0
145,1,1,2,1,1454.8169497938827,1264.2798994145824,0.0,0.0,0.0,0.0,1,1,0
146,1,1,2,1,0.0,0.0,0.0,0.0,0.0,0.0,1,1,0
147,1,1,2,1,0.0,0.0,0.0,0.0,0.0,0.0,1,1,0
148,1,1,2,1,54.7032757778652,0.0,0.0,0.0,0.0,0.0,1,1,0
149,1,1,2,1,52.86064055515454,0.0,0.0,0.0,0.0,0.0,1,1,0
150,1,1,2,1,1529.3527869754937,74.54500396521763,0.0,0.0,0.0,0.0,1,1,0
151,1,1,2,1,644.8637069142424,70.75313540730626,0.0,0.0,0.0,0.0,1,1,0
152,1,1,2,1,194.4559854221996,39.101718007726596,0.0,0.0,0.0,0.0,1,1,0
153,1,1,2,1,0.0,0.0,0.0,0.0,0.0,0.0,1,1,0
154,1,1,2,1,583.0635372576305,-11.547419518176469,0.0,0.0,0.0,0.0,1,1,0
155,1,1,1,1,250.61515177022665,89.63485742240215,0.0,0.0,0.0,0.0,1,1,0
156,1,1,1,1,16.001222152439876,11.672613297435456,0.0,0.0,0.0,0.0,1,1,0
157,1,1,1,1,79.58189869839698,-8.089931548135356,0.0,0.0,0.0,0.0,1,1,0
158,1,1,1,1,54.77739292065147,36.40724415421486,0.0,0.0,0.0,0.0,1,1,0
159,1,1,1,1,49.7468890203163,0.0,0.0,0.0,0.0,0.0,1,1,0
160,1,1,1,1,-29.64371307254769,11.567859222888949,0.0,0.0,0.0,0.0,1,1,0
161,1,1,1,1,138.88636954687536,98.63538539037108,0.0,0.0,0.0,0.0,1,1,0
162,1,1,1,1,53.624508220236756,0.0,0.0,0.0,0.0,0.0,1,1,0
163,1,1,1,1,0.0,0.0,0.0,0.0,0.0,0.0,1,1,0
164,1,1,1,1,15.902087682895363,10.707438873639331,0.0,0.0,0.0,0.0,1,1,0
165,1,1,1,1,76.3468405836355,73.6698682084121,0.0,0.0,0.0,0.0,1,1,0
166,1,1,1,1,178.1807867643889,-44.994947376986964,0.0,0.0,0.0,0.0,1,1,0
167,1,1,1,1,88.61115187231917,77.07499786957634,0.0,0.0,0.0,0.0,1,1,0
168,1,1,3,1,0.0,0.0,0.0,0.0,0.0,0.0,1,1,0
169,1,1,3,1,0.0,0.0,0.0,0.0,0.0,0.0,1,1,0
170,1,1,3,1,0.0,0.0,0.0,0.0,0.0,0.0,1,1,0
171,1,1,3,1,0.0,0.0,0.0,0.0,0.0,0.0,1,1,0
172,1,1,3,1,0.0,0.0,0.0,0.0,0.0,0.0,1,1,0
173,1,1,3,1,0.0,0.0,0.0,0.0,0.0,0.0,1,1,0
174,1,1,2,1,0.0,0.0,0.0,0.0,0.0,0.0,1,1,0
175,1,1,2,1,0.0,0.0,0.0,0.0,0.0,0.0,1,1,0
176,1,1,2,1,0.0,0.0,0.0,0.0,0.0,0.0,1,1,0
177,1,1,2,1,0.0,0.0,0.0,0.0,0.0,0.0,1,1,0
178,1,1,2,1,0.0,0.0,0.0,0.0,0.0,0.0,1,1,0
179,1,1,2,1,0.0,0.0,0.0,0.0,0.0,0.0,1,1,0
180,1,1,1,1,0.0,0.0,0.0,0.0,0.0,0.0,1,1,0
0 / END OF LOAD DATA, BEGIN FIXED SHUNT DATA
2,1,1,0.000000,0.000000
3,1,1,0.000000,0.000000
4,1,1,0.000000,0.000000
5,1,1,0.000000,0.000000
6,1,1,0.000000,0.000000
7,1,1,0.000000,-113.000000
8,1,1,0.000000,-155.000000
9,1,1,0.000000,0.000000
10,1,1,0.000000,0.000000
11,1,1,0.000000,0.000000
12,1,1,0.000000,-190.000000
13,1,1,0.000000,0.000000
14,1,1,0.000000,-391.000000
15,1,1,0.000000,0.000000
16,1,1,0.000000,-146.000000
17,1,1,0.000000,390.000000
18,1,1,0.000000,0.000000
19,1,1,0.000000,-427.000000
20,1,1,0.000000,0.000000
21,1,1,0.000000,0.000000
22,1,1,0.000000,0.000000
23,1,1,0.000000,0.000000
24,1,1,0.000000,0.000000
25,1,1,0.000000,0.000000
26,1,1,0.000000,0.000000
27,1,1,0.000000,0.000000
28,1,1,0.000000,0.000000
29,1,1,0.000000,0.000000
30,1,1,0.000000,0.000000
31,1,1,0.000000,0.000000
32,1,1,0.000000,0.000000
33,1,1,0.000000,0.000000
34,1,1,0.000000,0.000000
35,1,1,0.000000,0.000000
36,1,1,0.000000,0.000000
37,1,1,0.000000,912.000000
38,1,1,0.000000,0.000000
39,1,1,0.000000,0.000000
40,1,1,0.000000,0.000000
41,1,1,0.000000,0.000000
42,1,1,0.000000,0.000000
43,1,1,0.000000,0.000000
44,1,1,0.000000,430.000000
45,1,1,0.000000,0.000000
46,1,1,0.000000,0.000000
47,1,1,0.000000,0.000000
48,1,1,0.000000,0.000000
49,1,1,0.000000,-80.000000
50,1,1,0.000000,0.000000
51,1,1,0.000000,0.000000
52,1,1,0.000000,0.000000
53,1,1,0.000000,0.000000
54,1,1,0.000000,0.000000
55,1,1,0.000000,0.000000
56,1,1,0.000000,0.000000
57,1,1,0.000000,0.000000
58,1,1,0.000000,0.000000
59,1,1,0.000000,0.000000
60,1,1,0.000000,2146.000000
61,1,1,0.000000,0.000000
62,1,1,0.000000,0.000000
63,1,1,0.000000,-108.000000
64,1,1,0.000000,0.000000
65,1,1,0.000000,0.000000
66,1,1,0.000000,0.000000
67,1,1,0.000000,0.000000
68,1,1,0.000000,576.850000
69,1,1,0.000000,0.000000
70,1,1,0.000000,0.000000
71,1,1,0.000000,792.000000
72,1,1,0.000000,462.000000
73,1,1,0.000000,0.000000
74,1,1,0.000000,0.000000
75,1,1,0.000000,0.000000
76,1,1,0.000000,1019.350000
77,1,1,0.000000,0.000000
78,1,1,0.000000,550.000000
79,1,1,0.000000,0.000000
80,1,1,0.000000,1200.000000
81,1,1,0.000000,-220.000000
82,1,1,0.000000,-674.000000
83,1,1,0.000000,-110.000000
84,1,1,0.000000,-220.000000
85,1,1,0.000000,-870.000000
86,1,1,0.000000,0.000000
87,1,1,0.000000,0.000000
88,1,1,0.000000,0.000000
89,1,1,0.000000,0.000000
90,1,1,0.000000,0.000000
91,1,1,0.000000,0.000000
92,1,1,0.000000,0.000000
93,1,1,0.000000,0.000000
94,1,1,0.000000,0.000000
95,1,1,0.000000,0.000000
96,1,1,0.000000,0.000000
97,1,1,0.000000,0.000000
98,1,1,0.000000,0.000000
99,1,1,0.000000,0.000000
100,1,1,0.000000,0.000000
101,1,1,0.000000,0.000000
102,1,1,0.000000,0.000000
103,1,1,0.000000,0.000000
104,1,1,0.000000,-91.000000
105,1,1,0.000000,0.000000
106,1,1,0.000000,0.000000
107,1,1,0.000000,0.000000
108,1,1,0.000000,-327.000000
109,1,1,0.000000,-130.000000
110,1,1,0.000000,0.000000
111,1,1,0.000000,0.000000
112,1,1,0.000000,0.000000
113,1,1,0.000000,-128.000000
114,1,1,0.000000,-91.000000
115,1,1,0.000000,-91.000000
116,1,1,0.000000,0.000000
117,1,1,0.000000,-32.000000
118,1,1,0.000000,0.000000
119,1,1,0.000000,1500.000000
120,1,1,0.000000,0.000000
121,1,1,0.000000,0.000000
122,1,1,0.000000,0.000000
123,1,1,0.000000,0.000000
124,1,1,0.000000,0.000000
125,1,1,0.000000,0.000000
126,1,1,0.000000,0.000000
127,1,1,0.000000,0.000000
128,1,1,0.000000,0.000000
129,1,1,0.000000,0.000000
130,1,1,0.000000,0.000000
131,1,1,0.000000,0.000000
132,1,1,0.000000,0.000000
133,1,1,0.000000,0.000000
134,1,1,0.000000,0.000000
135,1,1,0.000000,0.000000
136,1,1,0.000000,0.000000
137,1,1,0.000000,0.000000
138,1,1,0.000000,0.000000
139,1,1,0.000000,-319.000000
140,1,1,0.000000,0.000000
141,1,1,0.000000,0.000000
142,1,1,0.000000,0.000000
143,1,1,0.000000,0.000000
144,1,1,0.000000,0.000000
145,1,1,0.000000,400.000000
146,1,1,0.000000,0.000000
147,1,1,0.000000,-196.000000
148,1,1,0.000000,0.000000
149,1,1,0.000000,0.000000
150,1,1,0.000000,0.000000
151,1,1,0.000000,0.000000
152,1,1,0.000000,0.000000
153,1,1,0.000000,0.000000
154,1,1,0.000000,-190.000000
155,1,1,0.000000,-60.000000
156,1,1,0.000000,0.000000
157,1,1,0.000000,0.000000
158,1,1,0.000000,-220.000000
159,1,1,0.000000,0.000000
160,1,1,0.000000,0.000000
161,1,1,0.000000,0.000000
162,1,1,0.000000,0.000000
163,1,1,0.000000,0.000000
164,1,1,0.000000,-18.000000
165,1,1,0.000000,0.000000
166,1,1,0.000000,-50.000000
167,1,1,0.000000,0.000000
168,1,1,0.000000,0.000000
169,1,1,0.000000,0.000000
170,1,1,0.000000,0.000000
171,1,1,0.000000,0.000000
172,1,1,0.000000,0.000000
173,1,1,0.000000,0.000000
174,1,1,0.000000,0.000000
175,1,1,0.000000,0.000000
176,1,1,0.000000,0.000000
177,1,1,0.000000,0.000000
178,1,1,0.000000,0.000000
179,1,1,0.000000,0.000000
180,1,1,0.000000,-220.000000
0 / END OF FIXED SHUNT DATA, BEGIN GENERATOR DATA
4,1,800.000000,123.046000,279.98307674657553,-332.5339753506705,1.040000,0,1600.000000,0,1,0,0,1,1,100,1491.4351996779442,247.91993683576584,1,1,0,1
6,1,1048.000000,-132.903000,394.82736902311444,-483.130921740085,0.950000,0,2100.000000,0,1,0,0,1,1,100,1916.7904917988926,218.95682743750513,1,1,0,1
9,1,2160.000000,-30.483000,702.4542745249347,-380.7262740610166,1.000000,0,4300.000000,0,1,0,0,1,1,100,4170.445908973925,983.1368836304173,1,1,0,1
11,1,2050.000000,464.823000,946.6376623604447,-978.653786983341,1.000000,0,4100.000000,0,1,0,0,1,1,100,3741.7435755999763,445.5981407286599,1,1,0,1
13,1,1690.000000,195.561000,720.4493188811467,-313.16249451600004,1.000000,0,3400.000000,0,1,0,0,1,1,100,3114.837576020509,471.0124891512096,1,1,0,1
15,1,2640.000000,378.087000,1239.5555816777053,-815.0707365199921,0.960000,0,5300.000000,0,1,0,0,1,1,100,5232.901746989228,1388.9755219491199,1,1,0,1
18,1,962.000000,148.780000,280.0819235108793,-289.1784829739481,1.000000,0,2000.000000,0,1,0,0,1,1,100,1827.7220888994634,285.27502795681335,1,1,0,1
30,1,4450.000000,1011.056000,4113.952261023223,-3603.7657191976914,1.000000,0,8900.000000,0,1,0,0,1,1,100,9511.41279824078,2353.321686189621,1,1,0,1
35,1,4480.000000,1150.156000,5219.285910310224,-3907.367421424018,1.020000,0,9000.000000,0,1,0,0,1,1,100,8478.309111110866,1722.0323661714783,1,1,0,1
36,1,1640.000000,285.661000,616.8606851622462,-482.0946234720759,1.009000,0,3300.000000,0,1,0,0,1,1,100,3173.4292692923923,535.0807740362366,1,1,0,1
40,1,200.000000,-52.158000,255.4220244701952,-185.9907487440854,1.020000,0,400.000000,0,1,0,0,1,1,100,368.6501677148044,80.29195238277316,1,1,0,1
43,1,325.000000,68.267000,278.891418823041,-223.21254127193242,1.000000,0,650.000000,0,1,0,0,1,1,100,671.3860887032934,158.11170911090448,1,1,0,1
45,1,1780.000000,534.587000,799.9844856816345,-575.5789803205988,1.050000,0,3600.000000,0,1,0,0,1,1,100,3384.9368280172353,442.40245816111565,1,1,0,1
47,1,110.000000,29.078000,97.08290638402104,-119.78696117177608,1.020000,0,220.000000,0,1,0,0,1,1,100,224.13581650145352,58.8082855965942,1,1,0,1
65,1,2910.000000,953.293000,1541.4027061779052,-1160.9662570990622,1.000000,0,5800.000000,0,1,0,0,1,1,100,5684.602323742583,636.6461321655661,1,1,0,1
70,1,1301.000000,431.526000,743.046380968392,-603.9679335203023,1.055000,0,2600.000000,0,1,0,0,1,1,100,2514.844212969765,511.9698227401823,1,1,0,1
77,1,5174.989000,855.300000,2461.775762894796,-1949.235742758448,1.000000,0,10400.000000,0,1,0,0,1,1,100,11076.897095963359,3393.7210073918095,1,1,0,1
79,1,9950.000000,1853.928000,5796.388146540151,-1966.8220653682938,1.000000,0,20000.000000,0,1,0,0,1,1,100,20927.181816659868,3486.972182802856,1,1,0,1
103,1,765.000000,-206.255000,300.94460725737736,-336.042660207022,0.980000,0,1500.000000,0,1,0,0,1,1,100,1524.8324907151982,304.7159562958402,1,1,0,1
112,1,1057.000000,25.688000,432.43369052186614,-385.5510714091361,1.020000,0,2100.000000,0,1,0,0,1,1,100,2116.5083151776344,529.668194202706,1,1,0,1
116,1,594.000000,192.365000,287.8013938246295,-275.7036890415475,1.050000,0,1200.000000,0,1,0,0,1,1,100,1224.2854793183508,323.1769848726691,1,1,0,1
118,1,3467.000000,1654.450000,2479.4065477326512,-1325.7998178247367,1.000000,0,6900.000000,0,1,0,0,1,1,100,7473.191126994789,1928.60691357404,1,1,0,1
138,1,982.700000,-128.761000,301.85697454959154,-344.8254505265504,1.020000,0,2000.000000,0,1,0,0,1,1,100,1800.8646204136312,107.52194946631766,1,1,0,1
140,1,3195.000000,1032.505000,2070.810475572944,-831.9928289158265,1.020000,0,6400.000000,0,1,0,0,1,1,100,5896.790080070496,907.4243071079254,1,1,0,1
144,1,1690.000000,593.817000,986.0034134751186,-404.7904887609186,1.050000,0,3400.000000,0,1,0,0,1,1,100,3494.998595854268,522.3937926422805,1,1,0,1
148,1,1680.000000,446.624000,750.0813535461203,-258.08397721964866,1.050000,0,3400.000000,0,1,0,0,1,1,100,3655.210260609165,764.4008666742593,1,1,0,1
149,1,2200.000000,393.721000,652.5021367147565,-552.0272192917764,1.010000,0,4400.000000,0,1,0,0,1,1,100,4468.55946308002,836.229939829559,1,1,0,1
159,1,1665.000000,-31.365000,10756.822438420171,-11056.566614162923,1.050000,0,3300.000000,0,1,0,0,1,1,100,3217.7585865883157,373.59921131562396,1,1,0,1
162,1,445.000000,91.732000,10976.636574370601,-7546.497813360114,1.000000,0,900.000000,0,1,0,0,1,1,100,839.6888492256404,76.50497301667929,1,1,0,1
0 / END OF GENERATOR DATA, BEGIN BRANCH DATA
2,3,1,0.000000,0.014600,0.000000,29700.0,9900.0,9900.0,0,0,0,0,1,1,0,1,1
3,8,1,0.001790,0.019880,2.576000,2228.921272,0.0,0.0,0,0,0,0,1,1,0,1,1
5,6,1,0.000000,0.012380,0.000000,29700.0,9900.0,9900.0,0,0,0,0,1,1,0,1,1
5,11,1,0.000000,0.015000,0.000000,29700.0,9900.0,9900.0,0,0,0,0,1,1,0,1,1
5,160,1,0.008110,0.136900,2.434800,2239.556168,0.0,0.0,0,0,0,0,1,1,0,1,1
7,28,1,0.000000,0.004080,0.000000,5501.805075,0.0,0.0,0,0,0,0,1,1,0,1,1
8,9,1,0.000000,0.005900,0.000000,29700.0,9900.0,9900.0,0,0,0,0,1,1,0,1,1
8,10,1,0.000280,0.013800,0.000000,29700.0,9900.0,9900.0,0,0,0,0,1,1,0,1,1
8,10,2,0.000290,0.013900,0.000000,29700.0,9900.0,9900.0,0,0,0,0,1,1,0,1,1
8,17,1,0.000500,0.005300,0.088200,2202.26795,0.0,0.0,0,0,0,0,1,1,0,1,1
12,20,1,0.000000,0.006340,0.000000,6105.057969,0.0,0.0,0,0,0,0,1,1,0,1,1
12,22,1,0.000000,0.011880,0.000000,5728.07622,0.0,0.0,0,0,0,0,1,1,0,1,1
12,139,1,0.002800,0.021100,1.019400,5383.457655,0.0,1630.0,0,0,0,0,1,1,0,1,1
14,24,1,0.000000,0.008260,0.000000,5418.438633,0.0,0.0,0,0,0,0,1,1,0,1,1
14,26,1,0.000000,0.017950,0.000000,6310.10937,0.0,0.0,0,0,0,0,1,1,0,1,1
16,19,1,0.000400,0.009600,0.903800,5226.719778,0.0,0.0,0,0,0,0,1,1,0,1,1
16,19,2,0.000400,0.009600,0.903800,5285.718015,0.0,0.0,0,0,0,0,1,1,0,1,1
16,136,1,0.002590,0.029670,2.153000,6089.133177,0.0,1800.0,0,0,0,0,1,1,0,1,1
16,136,2,0.002590,0.029670,2.153000,5579.20281,0.0,1800.0,0,0,0,0,1,1,0,1,1
17,5,1,0.009770,0.110000,2.000000,2345.791556,0.0,0.0,0,0,0,0,1,1,0,1,1
20,21,1,0.000770,0.018040,1.398420,5429.879589,0.0,0.0,0,0,0,0,1,1,0,1,1
21,14,1,0.000000,0.006340,0.000000,6161.594352,0.0,0.0,0,0,0,0,1,1,0,1,1
22,23,1,0.002410,0.058650,4.865600,6011.735094,0.0,0.0,0,0,0,0,1,1,0,1,1
23,19,1,0.000000,0.011880,0.000000,5239.795473,0.0,0.0,0,0,0,0,1,1,0,1,1
24,25,1,0.001790,0.042440,3.392200,6231.647694,0.0,0.0,0,0,0,0,1,1,0,1,1
25,19,1,0.000000,0.008260,0.000000,5833.182279,0.0,0.0,0,0,0,0,1,1,0,1,1
26,27,1,0.002070,0.049590,3.951600,5528.939277,0.0,0.0,0,0,0,0,1,1,0,1,1
27,139,1,0.000000,0.017950,0.000000,6343.965339,0.0,0.0,0,0,0,0,1,1,0,1,1
28,29,1,0.001770,0.041890,3.344600,5936.586579,0.0,0.0,0,0,0,0,1,1,0,1,1
29,14,1,0.000000,0.006120,0.000000,5435.23842,0.0,0.0,0,0,0,0,1,1,0,1,1
31,32,1,0.003500,0.070000,4.606000,5748.21135,0.0,0.0,0,0,0,0,1,1,0,1,1
31,80,1,0.000830,0.023900,3.300000,5328.928449,0.0,0.0,0,0,0,0,1,1,0,1,1
33,34,1,0.002000,0.020000,0.800000,855.661779,0.0,0.0,0,0,0,0,1,1,0,1,1
34,35,1,0.000000,0.002000,0.000000,29700.0,9900.0,9900.0,0,0,0,0,1,1,0,1,1
37,38,1,0.000740,0.018610,1.402640,5232.014328,0.0,0.0,0,0,0,0,1,1,0,1,1
37,56,1,0.000820,0.016680,1.188020,6104.515587,0.0,0.0,0,0,0,0,1,1,0,1,1
37,64,1,0.000000,0.001590,0.120020,5755.178607,0.0,0.0,0,0,0,0,1,1,0,1,1
37,64,2,0.000000,0.001590,0.120020,5757.143244,0.0,0.0,0,0,0,0,1,1,0,1,1
39,40,1,0.000500,0.023800,0.000000,29700.0,9900.0,9900.0,0,0,0,0,1,1,0,1,1
39,46,1,0.002210,0.033460,0.073380,892.460755,0.0,0.0,0,0,0,0,1,1,0,1,1
39,48,1,0.002900,0.038000,0.082400,893.63799,0.0,0.0,0,0,0,0,1,1,0,1,1
39,59,1,0.003090,0.046770,0.100800,756.455441,0.0,0.0,0,0,0,0,1,1,0,1,1
39,60,1,0.002260,0.034220,0.075060,832.095704,0.0,0.0,0,0,0,0,1,1,0,1,1
41,58,1,0.000350,0.005360,0.012040,822.576967,0.0,0.0,0,0,0,0,1,1,0,1,1
42,58,1,0.002810,0.042960,0.096480,867.194225,0.0,0.0,0,0,0,0,1,1,0,1,1
44,160,1,0.001800,0.024500,0.439200,2080.632729,0.0,0.0,0,0,0,0,1,1,0,1,1
44,160,2,0.001800,0.024500,0.439200,2218.055144,0.0,0.0,0,0,0,0,1,1,0,1,1
48,46,1,0.000290,0.004340,0.009500,841.151222,0.0,0.0,0,0,0,0,1,1,0,1,1
48,55,1,0.002290,0.015830,0.030600,855.656117,0.0,0.0,0,0,0,0,1,1,0,1,1
48,55,2,0.002290,0.015830,0.030600,905.332139,0.0,0.0,0,0,0,0,1,1,0,1,1
48,59,1,0.001410,0.009670,0.019400,772.885319,0.0,0.0,0,0,0,0,1,1,0,1,1
48,59,2,0.001410,0.009670,0.019400,912.285297,0.0,0.0,0,0,0,0,1,1,0,1,1
48,59,3,0.001610,0.009710,0.019280,763.476729,0.0,0.0,0,0,0,0,1,1,0,1,1
48,59,4,0.001610,0.009710,0.019280,911.690577,0.0,0.0,0,0,0,0,1,1,0,1,1
48,60,1,0.000270,0.003930,0.009180,837.057569,0.0,0.0,0,0,0,0,1,1,0,1,1
48,60,2,0.000270,0.003930,0.009180,783.450989,0.0,0.0,0,0,0,0,1,1,0,1,1
48,60,3,0.000270,0.003930,0.009180,804.851222,0.0,0.0,0,0,0,0,1,1,0,1,1
48,62,1,0.001380,0.011160,0.024700,758.557529,0.0,0.0,0,0,0,0,1,1,0,1,1
48,62,2,0.001380,0.011160,0.024700,759.883051,0.0,0.0,0,0,0,0,1,1,0,1,1
50,42,1,0.002200,0.034220,0.077160,761.150788,0.0,0.0,0,0,0,0,1,1,0,1,1
50,42,2,0.002380,0.036690,0.082840,887.500232,0.0,0.0,0,0,0,0,1,1,0,1,1
50,57,1,0.000370,0.003660,0.008300,880.085495,0.0,0.0,0,0,0,0,1,1,0,1,1
50,58,1,0.000550,0.005860,0.012460,835.500678,0.0,0.0,0,0,0,0,1,1,0,1,1
52,63,1,0.010700,0.079050,0.366700,1301.269382,0.0,0.0,0,0,0,0,1,1,0,1,1
53,63,1,0.010700,0.079050,0.366700,1287.543346,0.0,0.0,0,0,0,0,1,1,0,1,1
54,51,1,0.000300,0.013300,0.000000,29700.0,9900.0,9900.0,0,0,0,0,1,1,0,1,1
54,51,2,0.000300,0.013400,0.000000,29700.0,9900.0,9900.0,0,0,0,0,1,1,0,1,1
55,41,1,0.000470,0.007230,0.016240,754.409519,0.0,0.0,0,0,0,0,1,1,0,1,1
55,58,1,0.001190,0.012440,0.027980,856.669959,0.0,0.0,0,0,0,0,1,1,0,1,1
55,58,2,0.001190,0.012440,0.027980,852.168554,0.0,0.0,0,0,0,0,1,1,0,1,1
57,42,1,0.002010,0.030740,0.068860,768.892018,0.0,0.0,0,0,0,0,1,1,0,1,1
57,54,1,0.000730,0.010250,0.025580,765.60806,0.0,0.0,0,0,0,0,1,1,0,1,1
57,54,2,0.000730,0.010250,0.025580,898.030879,0.0,0.0,0,0,0,0,1,1,0,1,1
57,58,1,0.001100,0.011890,0.025140,908.690864,0.0,0.0,0,0,0,0,1,1,0,1,1
62,55,1,0.001280,0.009790,0.021200,868.543952,0.0,0.0,0,0,0,0,1,1,0,1,1
64,49,1,0.000830,0.018840,1.666680,5916.887508,0.0,0.0,0,0,0,0,1,1,0,1,1
68,71,1,0.000060,0.001310,0.003780,828.285444,0.0,3020.0,0,0,0,0,1,1,0,1,1
68,71,2,0.000060,0.001160,0.003320,776.555746,0.0,3020.0,0,0,0,0,1,1,0,1,1
69,72,1,0.000010,0.000300,0.014340,5711.037588,0.0,3450.0,0,0,0,0,1,1,0,1,1
69,72,2,0.000010,0.000300,0.018440,5829.80457,0.0,3450.0,0,0,0,0,1,1,0,1,1
69,76,1,0.000230,0.004510,0.333200,5923.307121,0.0,2175.0,0,0,0,0,1,1,0,1,1
69,76,2,0.000200,0.004460,0.305000,6169.986615,0.0,2175.0,0,0,0,0,1,1,0,1,1
75,73,1,0.001790,0.014050,3.680000,5422.510497,0.0,0.0,0,0,0,0,1,1,0,1,1
75,76,1,0.001960,0.033040,1.880000,5430.671988,0.0,0.0,0,0,0,0,1,1,0,1,1
75,78,1,0.001420,0.022580,1.880000,6088.945356,0.0,0.0,0,0,0,0,1,1,0,1,1
78,66,1,0.000700,0.074000,4.870000,5816.686047,0.0,0.0,0,0,0,0,1,1,0,1,1
78,74,1,0.001130,0.020690,1.855260,6145.85424,0.0,0.0,0,0,0,0,1,1,0,1,1
78,76,1,0.001200,0.023160,1.715200,5843.305935,0.0,0.0,0,0,0,0,1,1,0,1,1
78,76,2,0.000300,0.020000,3.600000,5603.150853,0.0,0.0,0,0,0,0,1,1,0,1,1
80,78,1,0.000200,0.008200,1.300000,5513.523696,0.0,0.0,0,0,0,0,1,1,0,1,1
80,78,2,0.000200,0.008200,1.300000,6123.045048,0.0,0.0,0,0,0,0,1,1,0,1,1
81,99,1,0.002640,0.053560,5.290660,6028.919244,0.0,3600.0,0,0,0,0,1,1,0,1,1
81,180,1,0.000000,0.026670,0.000000,5814.961659,0.0,1732.0,0,0,0,0,1,1,0,1,1
82,76,1,0.000630,0.014120,1.097560,5781.16305,0.0,3450.0,0,0,0,0,1,1,0,1,1
82,76,2,0.001090,0.024080,1.555420,5847.563388,0.0,3020.0,0,0,0,0,1,1,0,1,1
82,76,3,0.001080,0.024090,1.553480,5824.55328,0.0,3020.0,0,0,0,0,1,1,0,1,1
82,87,1,0.000410,0.007370,0.726940,6174.477576,0.0,3450.0,0,0,0,0,1,1,0,1,1
82,91,1,0.000660,0.012660,0.959760,5860.236915,0.0,3020.0,0,0,0,0,1,1,0,1,1
82,95,1,0.000660,0.012660,0.959760,5552.549751,0.0,3020.0,0,0,0,0,1,1,0,1,1
83,89,1,0.000720,0.013820,1.275720,5607.222759,0.0,3600.0,0,0,0,0,1,1,0,1,1
83,168,1,0.000000,0.007200,0.000000,5201.720211,0.0,1800.0,0,0,0,0,1,1,0,1,1
83,170,1,0.000000,0.008640,0.000000,5972.801451,0.0,1800.0,0,0,0,0,1,1,0,1,1
83,172,1,0.000000,0.010000,0.000000,5952.463776,0.0,0.0,0,0,0,0,1,1,0,1,1
85,36,1,0.000000,0.004600,0.000000,29700.0,9900.0,9900.0,0,0,0,0,1,1,0,1,1
87,88,1,0.000000,0.012630,0.000000,5457.14244,0.0,2000.0,0,0,0,0,1,1,0,1,1
88,86,1,0.000600,0.010360,1.014560,5885.881836,0.0,3450.0,0,0,0,0,1,1,0,1,1
89,90,1,0.000000,0.008580,0.000000,5582.860599,0.0,2000.0,0,0,0,0,1,1,0,1,1
90,86,1,0.000120,0.002380,0.219260,5500.979988,0.0,3600.0,0,0,0,0,1,1,0,1,1
91,92,1,0.000000,0.012630,0.000000,5928.694767,0.0,2400.0,0,0,0,0,1,1,0,1,1
92,93,1,0.000740,0.014280,1.082200,6112.66584,0.0,3020.0,0,0,0,0,1,1,0,1,1
93,94,1,0.000000,0.012630,0.000000,5217.67815,0.0,2400.0,0,0,0,0,1,1,0,1,1
94,83,1,0.000780,0.015020,1.138100,6085.380495,0.0,3020.0,0,0,0,0,1,1,0,1,1
95,96,1,0.000000,0.012630,0.000000,6113.32008,0.0,2000.0,0,0,0,0,1,1,0,1,1
96,97,1,0.000740,0.014280,1.082200,5871.809508,0.0,3020.0,0,0,0,0,1,1,0,1,1
97,98,1,0.000000,0.012630,0.000000,5406.120333,0.0,2000.0,0,0,0,0,1,1,0,1,1
98,83,1,0.000740,0.014130,1.066340,5586.766263,0.0,3020.0,0,0,0,0,1,1,0,1,1
99,84,1,0.000000,0.026670,0.000000,5475.443844,0.0,1732.0,0,0,0,0,1,1,0,1,1
100,117,1,0.014800,0.101010,0.120660,691.752121,0.0,838.0,0,0,0,0,1,1,0,1,1
101,100,1,0.024820,0.169380,0.202320,635.951831,0.0,838.0,0,0,0,0,1,1,0,1,1
101,105,1,0.013820,0.092680,0.110600,689.320374,0.0,747.0,0,0,0,0,1,1,0,1,1
101,106,1,0.016680,0.113810,0.136080,590.266201,0.0,838.0,0,0,0,0,1,1,0,1,1
101,113,1,0.011130,0.066780,0.072860,602.446591,0.0,752.0,0,0,0,0,1,1,0,1,1
101,113,2,0.010500,0.065400,0.068600,691.042819,0.0,602.0,0,0,0,0,1,1,0,1,1
101,113,3,0.011050,0.066420,0.071600,607.959208,0.0,752.0,0,0,0,0,1,1,0,1,1
101,117,1,0.039030,0.274030,0.310720,611.319547,0.0,747.0,0,0,0,0,1,1,0,1,1
102,108,1,0.000870,0.020870,1.457100,5557.844481,0.0,0.0,0,0,0,0,1,1,0,1,1
102,108,2,0.000870,0.020870,1.457100,5316.33783,0.0,0.0,0,0,0,0,1,1,0,1,1
104,102,1,0.000790,0.019370,1.328500,5350.040727,0.0,0.0,0,0,0,0,1,1,0,1,1
104,135,1,0.000720,0.016000,1.087900,5207.324529,0.0,2450.0,0,0,0,0,1,1,0,1,1
105,117,1,0.030580,0.204600,0.244720,603.835326,0.0,747.0,0,0,0,0,1,1,0,1,1
106,117,1,0.022350,0.161060,0.183420,590.011574,0.0,838.0,0,0,0,0,1,1,0,1,1
107,104,1,0.000830,0.019850,0.000000,6347.358861,0.0,2450.0,0,0,0,0,1,1,0,1,1
107,108,1,0.001530,0.014700,0.000000,6319.387959,0.0,1560.0,0,0,0,0,1,1,0,1,1
108,174,1,0.000000,0.009350,0.000000,5224.15287,0.0,2134.0,0,0,0,0,1,1,0,1,1
108,176,1,0.000000,0.009440,0.000000,5392.830681,0.0,2134.0,0,0,0,0,1,1,0,1,1
108,178,1,0.000000,0.009350,0.000000,5506.759815,0.0,2134.0,0,0,0,0,1,1,0,1,1
110,107,1,0.000530,0.012970,0.000000,5982.864762,0.0,2450.0,0,0,0,0,1,1,0,1,1
111,120,1,0.000000,0.010000,0.000000,5928.767229,0.0,2667.0,0,0,0,0,1,1,0,1,1
114,124,1,0.000020,0.009980,0.000000,5241.429225,0.0,1800.0,0,0,0,0,1,1,0,1,1
114,126,1,0.000020,0.009980,0.000000,6324.210282,0.0,1800.0,0,0,0,0,1,1,0,1,1
115,128,1,0.000010,0.011200,0.000000,5954.113518,0.0,2667.0,0,0,0,0,1,1,0,1,1
115,130,1,0.000010,0.007200,0.000000,6092.520852,0.0,2667.0,0,0,0,0,1,1,0,1,1
119,132,1,0.000010,0.007550,0.000000,5535.239442,0.0,0.0,0,0,0,0,1,1,0,1,1
119,134,1,0.000010,0.010980,0.000000,5596.341348,0.0,2450.0,0,0,0,0,1,1,0,1,1
120,121,1,0.000760,0.019520,1.824500,6068.638509,0.0,2894.0,0,0,0,0,1,1,0,1,1
121,122,1,0.000000,0.010000,0.000000,5243.64078,0.0,2667.0,0,0,0,0,1,1,0,1,1
122,123,1,0.000820,0.021190,1.984200,5583.30225,0.0,2894.0,0,0,0,0,1,1,0,1,1
123,119,1,0.000000,0.010000,0.000000,5409.415947,0.0,2667.0,0,0,0,0,1,1,0,1,1
124,125,1,0.001400,0.023380,1.475000,6166.312575,0.0,2396.0,0,0,0,0,1,1,0,1,1
125,115,1,0.000010,0.006660,0.000000,5944.32372,0.0,1800.0,0,0,0,0,1,1,0,1,1
126,127,1,0.001400,0.023380,1.475000,5926.728312,0.0,2396.0,0,0,0,0,1,1,0,1,1
127,115,1,0.000010,0.006660,0.000000,5470.702902,0.0,1800.0,0,0,0,0,1,1,0,1,1
128,129,1,0.001540,0.034090,2.311400,5478.237171,0.0,2450.0,0,0,0,0,1,1,0,1,1
129,119,1,0.000010,0.011200,0.000000,5691.917949,0.0,2667.0,0,0,0,0,1,1,0,1,1
130,131,1,0.000950,0.021020,1.425200,5799.220812,0.0,2450.0,0,0,0,0,1,1,0,1,1
131,119,1,0.000010,0.003600,0.000000,5209.141932,0.0,2667.0,0,0,0,0,1,1,0,1,1
132,133,1,0.001650,0.057190,2.477400,5911.315584,0.0,2450.0,0,0,0,0,1,1,0,1,1
133,108,1,0.000020,0.013310,0.000000,6339.227709,0.0,1800.0,0,0,0,0,1,1,0,1,1
134,104,1,0.000930,0.036440,1.389500,5361.695082,0.0,2450.0,0,0,0,0,1,1,0,1,1
135,108,1,0.000020,0.009980,0.000000,5326.801509,0.0,2450.0,0,0,0,0,1,1,0,1,1
136,152,1,0.000420,0.009050,0.667940,5633.23131,0.0,3600.0,0,0,0,0,1,1,0,1,1
137,61,1,0.001400,0.026400,0.102000,848.658933,0.0,3070.0,0,0,0,0,1,1,0,1,1
137,143,1,0.001900,0.025800,0.098400,911.652617,0.0,2320.0,0,0,0,0,1,1,0,1,1
137,150,1,0.008450,0.070340,0.159540,756.601232,0.0,1160.0,0,0,0,0,1,1,0,1,1
139,64,1,0.001790,0.025240,0.535460,5690.145357,0.0,0.0,0,0,0,0,1,1,0,1,1
139,64,2,0.001790,0.025240,0.535460,5269.135158,0.0,0.0,0,0,0,0,1,1,0,1,1
139,142,1,0.001930,0.027790,4.671200,5450.333181,0.0,3600.0,0,0,0,0,1,1,0,1,1
141,143,1,0.001100,0.012700,0.048000,859.213708,0.0,2320.0,0,0,0,0,1,1,0,1,1
142,64,1,0.000200,0.004100,0.296200,5830.687545,0.0,0.0,0,0,0,0,1,1,0,1,1
142,145,1,0.000280,0.007530,0.517360,6109.895487,0.0,3600.0,0,0,0,0,1,1,0,1,1
142,145,2,0.000350,0.007500,0.553600,5310.256458,0.0,3600.0,0,0,0,0,1,1,0,1,1
142,147,1,0.001900,0.031000,4.140200,6003.074427,0.0,3600.0,0,0,0,0,1,1,0,1,1
142,151,1,0.000600,0.012800,0.946200,5660.519448,0.0,3600.0,0,0,0,0,1,1,0,1,1
142,153,1,0.000440,0.011250,0.829200,6117.811728,0.0,3600.0,0,0,0,0,1,1,0,1,1
142,153,2,0.000440,0.011250,0.829200,6194.73873,0.0,3600.0,0,0,0,0,1,1,0,1,1
145,146,1,0.000000,0.005000,0.000000,29700.0,9900.0,9900.0,0,0,0,0,1,1,0,1,1
145,151,1,0.000210,0.004570,0.323360,5370.294789,0.0,3600.0,0,0,0,0,1,1,0,1,1
146,143,1,0.001380,0.053990,0.152520,914.180565,0.0,2320.0,0,0,0,0,1,1,0,1,1
147,139,1,0.000560,0.014150,1.042900,5406.161415,0.0,3600.0,0,0,0,0,1,1,0,1,1
150,61,1,0.000650,0.011870,0.046720,913.990847,0.0,3070.0,0,0,0,0,1,1,0,1,1
150,61,2,0.000650,0.011870,0.046720,773.572522,0.0,3070.0,0,0,0,0,1,1,0,1,1
150,154,1,0.002850,0.036490,0.126560,881.983999,0.0,2320.0,0,0,0,0,1,1,0,1,1
150,154,2,0.001380,0.033990,0.112520,873.0128,0.0,2320.0,0,0,0,0,1,1,0,1,1
151,152,1,0.000400,0.009300,0.685600,5434.14552,0.0,3600.0,0,0,0,0,1,1,0,1,1
154,143,1,0.003200,0.039500,0.144000,754.668545,0.0,2320.0,0,0,0,0,1,1,0,1,1
155,158,1,0.005200,0.060200,1.010000,2062.331734,0.0,0.0,0,0,0,0,1,1,0,1,1
155,158,2,0.004900,0.053700,0.884300,2312.290794,0.0,0.0,0,0,0,0,1,1,0,1,1
155,160,1,0.001700,0.022500,0.399200,2031.485226,0.0,0.0,0,0,0,0,1,1,0,1,1
155,160,2,0.002100,0.023800,0.384500,2228.089283,0.0,0.0,0,0,0,0,1,1,0,1,1
155,165,1,0.001200,0.017200,0.298700,2165.787499,0.0,0.0,0,0,0,0,1,1,0,1,1
155,167,1,0.000800,0.010600,0.203900,2253.36961,0.0,0.0,0,0,0,0,1,1,0,1,1
156,85,1,0.006200,0.067300,1.115600,2099.672143,0.0,0.0,0,0,0,0,1,1,0,1,1
156,155,1,0.002400,0.033200,0.584900,2233.952852,0.0,0.0,0,0,0,0,1,1,0,1,1
156,157,1,0.000300,0.018100,0.000000,29700.0,9900.0,9900.0,0,0,0,0,1,1,0,1,1
156,167,1,0.001600,0.022600,0.381000,2084.634159,0.0,0.0,0,0,0,0,1,1,0,1,1
157,161,1,0.010800,0.096500,0.329600,819.244222,0.0,0.0,0,0,0,0,1,1,0,1,1
158,164,1,0.009600,0.087800,1.426500,2327.055345,0.0,0.0,0,0,0,0,1,1,0,1,1
158,165,1,0.003400,0.039200,0.652400,2473.460575,0.0,0.0,0,0,0,0,1,1,0,1,1
158,166,1,0.003400,0.037400,0.620800,2074.221852,0.0,0.0,0,0,0,0,1,1,0,1,1
158,166,2,0.003400,0.037200,0.618200,2446.2209,0.0,0.0,0,0,0,0,1,1,0,1,1
160,166,1,0.003800,0.034000,0.582400,2294.698567,0.0,0.0,0,0,0,0,1,1,0,1,1
160,166,2,0.003200,0.034900,0.572200,2045.846459,0.0,0.0,0,0,0,0,1,1,0,1,1
163,8,1,0.004800,0.043600,0.707800,2384.642198,0.0,0.0,0,0,0,0,1,1,0,1,1
164,163,1,0.000000,0.019500,0.000000,29700.0,9900.0,9900.0,0,0,0,0,1,1,0,1,1
168,169,1,0.001030,0.023380,1.580400,5913.360342,0.0,3020.0,0,0,0,0,1,1,0,1,1
169,114,1,0.000000,0.007200,0.000000,5470.599618,0.0,1800.0,0,0,0,0,1,1,0,1,1
170,171,1,0.001070,0.024700,1.527000,5806.135518,0.0,3020.0,0,0,0,0,1,1,0,1,1
171,114,1,0.000000,0.007200,0.000000,5324.024271,0.0,1800.0,0,0,0,0,1,1,0,1,1
172,173,1,0.001030,0.032300,2.796000,5693.294601,0.0,0.0,0,0,0,0,1,1,0,1,1
173,111,1,0.000000,0.010000,0.000000,5331.759663,0.0,0.0,0,0,0,0,1,1,0,1,1
174,175,1,0.001230,0.026590,1.987020,5229.661824,0.0,3600.0,0,0,0,0,1,1,0,1,1
175,153,1,0.000000,0.009350,0.000000,5594.684475,0.0,2134.0,0,0,0,0,1,1,0,1,1
176,177,1,0.001230,0.026620,1.988800,5606.34876,0.0,3600.0,0,0,0,0,1,1,0,1,1
177,153,1,0.000000,0.009350,0.000000,6109.943838,0.0,2134.0,0,0,0,0,1,1,0,1,1
178,179,1,0.001120,0.025170,1.835860,5705.354808,0.0,3600.0,0,0,0,0,1,1,0,1,1
179,153,1,0.000000,0.008400,0.000000,5319.477612,0.0,2100.0,0,0,0,0,1,1,0,1,1
180,86,1,0.001220,0.023730,2.207100,5698.583304,0.0,3600.0,0,0,0,0,1,1,0,1,1
0 / END OF BRANCH DATA, BEGIN TRANSFORMER DATA
2,4,0,1,1,1,1,0,0,2,"            ",1,1,1,"            "
0.000000,0.017300,100.000000
0.954500,0,0.000000,29700.000000,9900.000000,9900.000000,0,0,1.107700,0.897700,1.107700,0.897700,33,0,0,0,0
1.000000,0
7,8,0,1,1,1,1,0,0,2,"            ",1,1,1,"            "
0.000000,0.011000,100.000000
1.063000,0,0.000000,29700.000000,9900.000000,9900.000000,0,0,1.107700,0.897700,1.107700,0.897700,33,0,0,0,0
1.000000,0
7,8,0,2,1,1,1,0,0,2,"            ",1,1,1,"            "
0.000000,0.011000,100.000000
1.063000,0,0.000000,29700.000000,9900.000000,9900.000000,0,0,1.107700,0.897700,1.107700,0.897700,33,0,0,0,0
1.000000,0
12,13,0,1,1,1,1,0,0,2,"            ",1,1,1,"            "
0.000000,0.006660,100.000000
1.080000,0,0.000000,29700.000000,9900.000000,9900.000000,0,0,1.107700,0.897700,1.107700,0.897700,33,0,0,0,0
1.000000,0
16,15,0,1,1,1,1,0,0,2,"            ",1,1,1,"            "
0.000060,0.004950,100.000000
1.106100,0,0.000000,29700.000000,9900.000000,9900.000000,0,0,1.107700,0.897700,1.107700,0.897700,33,0,0,0,0
1.000000,0
17,18,0,1,1,1,1,0,0,2,"            ",1,1,1,"            "
0.000000,0.006000,100.000000
1.043500,0,0.000000,29700.000000,9900.000000,9900.000000,0,0,1.107700,0.897700,1.107700,0.897700,33,0,0,0,0
1.000000,0
31,30,0,1,1,1,1,0,0,2,"            ",1,1,1,"            "
0.000000,0.001500,100.000000
1.050000,0,0.000000,29700.000000,9900.000000,9900.000000,0,0,1.107700,0.897700,1.107700,0.897700,33,0,0,0,0
1.000000,0
32,33,0,1,1,1,1,0,0,2,"            ",1,1,1,"            "
0.000000,0.010000,100.000000
1.100000,0,0.000000,29700.000000,9900.000000,9900.000000,0,0,1.107700,0.897700,1.107700,0.897700,33,0,0,0,0
1.000000,0
38,48,0,1,1,1,1,0,0,2,"            ",1,1,1,"            "
0.000130,0.006930,100.000000
1.050000,0,0.000000,29700.000000,9900.000000,9900.000000,0,0,1.107700,0.897700,1.107700,0.897700,33,0,0,0,0
1.000000,0
42,43,0,1,1,1,1,0,0,2,"            ",1,1,1,"            "
0.000580,0.025350,100.000000
1.049100,0,0.000000,29700.000000,9900.000000,9900.000000,0,0,1.107700,0.897700,1.107700,0.897700,33,0,0,0,0
1.000000,0
44,45,0,1,1,1,1,0,0,2,"            ",1,1,1,"            "
0.000000,0.005200,100.000000
1.025000,0,0.000000,29700.000000,9900.000000,9900.000000,0,0,1.107700,0.897700,1.107700,0.897700,33,0,0,0,0
1.000000,0
48,47,0,1,1,1,1,0,0,2,"            ",1,1,1,"            "
0.004990,0.114730,100.000000
1.047800,0,0.000000,29700.000000,9900.000000,9900.000000,0,0,1.107700,0.897700,1.107700,0.897700,33,0,0,0,0
1.000000,0
49,48,0,1,1,1,1,0,0,2,"            ",1,1,1,"            "
0.000260,0.013860,100.000000
1.050000,0,0.000000,29700.000000,9900.000000,9900.000000,0,0,1.107700,0.897700,1.107700,0.897700,33,0,0,0,0
1.000000,0
52,51,0,1,1,1,1,0,0,2,"            ",1,1,1,"            "
0.000590,0.014910,100.000000
1.001700,0,0.000000,29700.000000,9900.000000,9900.000000,0,0,1.107700,0.897700,1.107700,0.897700,33,0,0,0,0
1.000000,0
53,51,0,1,1,1,1,0,0,2,"            ",1,1,1,"            "
0.000590,0.014910,100.000000
1.001700,0,0.000000,29700.000000,9900.000000,9900.000000,0,0,1.107700,0.897700,1.107700,0.897700,33,0,0,0,0
1.000000,0
56,55,0,1,1,1,1,0,0,2,"            ",1,1,1,"            "
0.000130,0.013860,100.000000
1.010600,0,0.000000,29700.000000,9900.000000,9900.000000,0,0,1.107700,0.897700,1.107700,0.897700,33,0,0,0,0
1.000000,0
56,55,0,2,1,1,1,0,0,2,"            ",1,1,1,"            "
0.000130,0.013860,100.000000
1.010600,0,0.000000,29700.000000,9900.000000,9900.000000,0,0,1.107700,0.897700,1.107700,0.897700,33,0,0,0,0
1.000000,0
60,61,0,1,1,1,1,0,0,2,"            ",1,1,1,"            "
0.000000,0.001150,100.000000
1.013300,0,0.000000,29700.000000,9900.000000,9900.000000,0,0,1.107700,0.897700,1.107700,0.897700,33,0,0,0,0
1.000000,0
64,63,0,1,1,1,1,0,0,2,"            ",1,1,1,"            "
0.000200,0.023380,100.000000
0.978900,0,0.000000,29700.000000,9900.000000,9900.000000,0,0,1.107700,0.897700,1.107700,0.897700,33,0,0,0,0
1.000000,0
66,65,0,1,1,1,1,0,0,2,"            ",1,1,1,"            "
0.000000,0.005000,100.000000
1.090000,0,0.000000,29700.000000,9900.000000,9900.000000,0,0,1.107700,0.897700,1.107700,0.897700,33,0,0,0,0
1.000000,0
68,67,0,1,1,1,1,0,0,2,"            ",1,1,1,"            "
0.000890,0.029900,100.000000
0.987300,0,0.000000,29700.000000,9900.000000,9900.000000,0,0,1.107700,0.897700,1.107700,0.897700,33,0,0,0,0
1.000000,0
68,70,0,1,1,1,1,0,0,2,"            ",1,1,1,"            "
0.000000,0.010340,100.000000
1.045500,0,0.000000,29700.000000,9900.000000,9900.000000,0,0,1.107700,0.897700,1.107700,0.897700,33,0,0,0,0
1.000000,0
69,68,0,1,1,1,1,0,0,2,"            ",1,1,1,"            "
0.000200,0.011810,100.000000
1.023800,0,0.000000,29700.000000,9900.000000,9900.000000,0,0,1.107700,0.897700,1.107700,0.897700,33,0,0,0,0
1.000000,0
69,68,0,2,1,1,1,0,0,2,"            ",1,1,1,"            "
0.000090,0.007350,100.000000
1.023800,0,0.000000,29700.000000,9900.000000,9900.000000,0,0,1.107700,0.897700,1.107700,0.897700,33,0,0,0,0
1.000000,0
72,71,0,1,1,1,1,0,0,2,"            ",1,1,1,"            "
0.000000,0.002210,100.000000
1.023400,0,0.000000,29700.000000,9900.000000,9900.000000,0,0,1.107700,0.897700,1.107700,0.897700,33,0,0,0,0
1.000000,0
76,77,0,1,1,1,1,0,0,2,"            ",1,1,1,"            "
0.000000,0.003750,100.000000
1.097700,0,0.000000,29700.000000,9900.000000,9900.000000,0,0,1.107700,0.897700,1.107700,0.897700,33,0,0,0,0
1.000000,0
80,79,0,1,1,1,1,0,0,2,"            ",1,1,1,"            "
0.000000,0.002500,100.000000
1.066000,0,0.000000,29700.000000,9900.000000,9900.000000,0,0,1.107700,0.897700,1.107700,0.897700,33,0,0,0,0
1.000000,0
84,85,0,1,1,1,1,0,0,2,"            ",1,1,1,"            "
0.000000,0.007200,100.000000
1.050000,0,0.000000,29700.000000,9900.000000,9900.000000,0,0,1.107700,0.897700,1.107700,0.897700,33,0,0,0,0
1.000000,0
102,103,0,1,1,1,1,0,0,2,"            ",1,1,1,"            "
0.000000,0.009800,100.000000
1.050000,0,0.000000,29700.000000,9900.000000,9900.000000,0,0,1.107700,0.897700,1.107700,0.897700,33,0,0,0,0
1.000000,0
109,108,0,1,1,1,1,0,0,2,"            ",1,1,1,"            "
0.000000,0.017400,100.000000
1.119000,0,0.000000,29700.000000,9900.000000,9900.000000,0,0,1.107700,0.897700,1.107700,0.897700,33,0,0,0,0
1.000000,0
109,108,0,2,1,1,1,0,0,2,"            ",1,1,1,"            "
0.000000,0.011900,100.000000
1.119000,0,0.000000,29700.000000,9900.000000,9900.000000,0,0,1.107700,0.897700,1.107700,0.897700,33,0,0,0,0
1.000000,0
112,113,0,1,1,1,1,0,0,2,"            ",1,1,1,"            "
0.000000,0.022810,100.000000
0.917400,0,0.000000,29700.000000,9900.000000,9900.000000,0,0,1.107700,0.897700,1.107700,0.897700,33,0,0,0,0
1.000000,0
113,114,0,1,1,1,1,0,0,2,"            ",1,1,1,"            "
0.000100,0.017400,100.000000
1.119000,0,0.000000,29700.000000,9900.000000,9900.000000,0,0,1.107700,0.897700,1.107700,0.897700,33,0,0,0,0
1.000000,0
116,117,0,1,1,1,1,0,0,2,"            ",1,1,1,"            "
0.000000,0.018150,100.000000
0.909100,0,0.000000,29700.000000,9900.000000,9900.000000,0,0,1.107700,0.897700,1.107700,0.897700,33,0,0,0,0
1.000000,0
117,119,0,1,1,1,1,0,0,2,"            ",1,1,1,"            "
0.000200,0.012500,100.000000
1.119000,0,0.000000,29700.000000,9900.000000,9900.000000,0,0,1.107700,0.897700,1.107700,0.897700,33,0,0,0,0
1.000000,0
118,119,0,1,1,1,1,0,0,2,"            ",1,1,1,"            "
0.000000,0.004480,100.000000
0.945200,0,0.000000,29700.000000,9900.000000,9900.000000,0,0,1.107700,0.897700,1.107700,0.897700,33,0,0,0,0
1.000000,0
138,139,0,1,1,1,1,0,0,2,"            ",1,1,1,"            "
0.000000,0.015120,100.000000
0.996000,0,0.000000,29700.000000,9900.000000,9900.000000,0,0,1.107700,0.897700,1.107700,0.897700,33,0,0,0,0
1.000000,0
140,141,0,1,1,1,1,0,0,2,"            ",1,1,1,"            "
0.000000,0.003650,100.000000
0.978700,0,0.000000,29700.000000,9900.000000,9900.000000,0,0,1.107700,0.897700,1.107700,0.897700,33,0,0,0,0
1.000000,0
144,145,0,1,1,1,1,0,0,2,"            ",1,1,1,"            "
0.000000,0.005160,100.000000
0.984300,0,0.000000,29700.000000,9900.000000,9900.000000,0,0,1.107700,0.897700,1.107700,0.897700,33,0,0,0,0
1.000000,0
147,148,0,1,1,1,1,0,0,2,"            ",1,1,1,"            "
0.000000,0.009800,100.000000
1.050000,0,0.000000,29700.000000,9900.000000,9900.000000,0,0,1.107700,0.897700,1.107700,0.897700,33,0,0,0,0
1.000000,0
149,150,0,1,1,1,1,0,0,2,"            ",1,1,1,"            "
0.000000,0.010260,100.000000
0.987100,0,0.000000,29700.000000,9900.000000,9900.000000,0,0,1.107700,0.897700,1.107700,0.897700,33,0,0,0,0
1.000000,0
153,154,0,1,1,1,1,0,0,2,"            ",1,1,1,"            "
0.000000,0.011490,100.000000
1.063100,0,0.000000,29700.000000,9900.000000,9900.000000,0,0,1.107700,0.897700,1.107700,0.897700,33,0,0,0,0
1.000000,0
153,154,0,2,1,1,1,0,0,2,"            ",1,1,1,"            "
0.000000,0.011490,100.000000
1.063100,0,0.000000,29700.000000,9900.000000,9900.000000,0,0,1.107700,0.897700,1.107700,0.897700,33,0,0,0,0
1.000000,0
153,154,0,3,1,1,1,0,0,2,"            ",1,1,1,"            "
0.000000,0.011490,100.000000
1.063100,0,0.000000,29700.000000,9900.000000,9900.000000,0,0,1.107700,0.897700,1.107700,0.897700,33,0,0,0,0
1.000000,0
158,159,0,1,1,1,1,0,0,2,"            ",1,1,1,"            "
0.000200,0.005800,100.000000
0.985500,0,0.000000,29700.000000,9900.000000,9900.000000,0,0,1.107700,0.897700,1.107700,0.897700,33,0,0,0,0
1.000000,0
161,162,0,1,1,1,1,0,0,2,"            ",1,1,1,"            "
0.000500,0.014100,100.000000
1.058800,0,0.000000,29700.000000,9900.000000,9900.000000,0,0,1.107700,0.897700,1.107700,0.897700,33,0,0,0,0
1.000000,0
0 / END OF TRANSFORMER DATA, BEGIN AREA DATA
0 / END OF AREA DATA, BEGIN TWO-TERMINAL DC DATA
0 / END OF TWO-TERMINAL DC DATA, BEGIN VSC DC LINE DATA
0 / END OF VSC DC LINE DATA, BEGIN SWITCHED SHUNT DATA
0 / END OF SWITCHED SHUNT DATA, BEGIN IMPEDANCE CORRECTION DATA
0 / END OF IMPEDANCE CORRECTION DATA, BEGIN MULTI-TERMINAL DC DATA
0 / END OF MULTI-TERMINAL DC DATA, BEGIN MULTI-SECTION LINE DATA
0 / END OF MULTI-SECTION LINE DATA, BEGIN ZONE DATA
0 / END OF ZONE DATA, BEGIN INTER-AREA TRANSFER DATA
0 / END OF INTER-AREA TRANSFER DATA, BEGIN OWNER DATA
0 / END OF OWNER DATA, BEGIN FACTS CONTROL DEVICE DATA
0 / END OF FACTS CONTROL DEVICE DATA
